$DATA1 SOURCE='HSPICE' VERSION='N-2017.12-SP2-1 linux64' PARAM_COUNT=0
.TITLE '**description**'
 s0-0             s0-1             s0-2             s0-3            
 s0-4             s0-5             s0-6             s0-7            
 s0-8             s0-9             s0-10            s0-11           
 s0-12            s0-13            s0-14            s0-15           
 s0-16            s0-17            s0-18            s0-19           
 s0-20            s0-21            s0-22            s0-23           
 s0-24            s0-25            s0-26            s0-27           
 s0-28            s0-29            s0-30            s0-31           
 s0-32            s0-33            s0-34            s0-35           
 temper           alter#          
  2.948e-02        2.992e-02        3.594e-02          0.9782       
    0.9802           0.9797           0.9797         3.112e-02      
    0.9809           0.9797         3.112e-02          0.9809       
    0.9797         3.112e-02        3.074e-02        3.087e-02      
  3.109e-02        3.015e-02          0.9839           0.9838       
    0.9838           0.9838           0.9838           0.9838       
    0.9838           0.9838           0.9838           0.9838       
    0.9838           0.9838           0.9838           0.9838       
    0.9835         2.997e-02        2.979e-02        4.835e-03      
   25.0000        1               
