$DATA1 SOURCE='HSPICE' VERSION='N-2017.12-SP2-1 linux64' PARAM_COUNT=0
.TITLE '**description**'
 s0-0             s0-1             s0-2             s0-3            
 s0-4             s0-5             s0-6             s0-7            
 s0-8             s0-9             s0-10            s0-11           
 s0-12            s0-13            s0-14            s0-15           
 s0-16            s0-17            s0-18            s0-19           
 s0-20            s0-21            s0-22            s0-23           
 s0-24            s0-25            s0-26            s0-27           
 s0-28            s0-29            s0-30            s0-31           
 s0-32            s0-33            s0-34            s0-35           
 s1-0             s1-1             s1-2             s1-3            
 s1-4             s1-5             s1-6             s1-7            
 s1-8             s1-9             s1-10            s1-11           
 s1-12            s1-13            s1-14            s1-15           
 s1-16            s1-17            s1-18            s1-19           
 s1-20            s1-21            s1-22            s1-23           
 s1-24            s1-25            s1-26            s1-27           
 s1-28            s1-29            s1-30            s1-31           
 s1-32            s1-33            s1-34            s1-35           
 s2-0             s2-1             s2-2             s2-3            
 s2-4             s2-5             s2-6             s2-7            
 s2-8             s2-9             s2-10            s2-11           
 s2-12            s2-13            s2-14            s2-15           
 s2-16            s2-17            s2-18            s2-19           
 s2-20            s2-21            s2-22            s2-23           
 s2-24            s2-25            s2-26            s2-27           
 s2-28            s2-29            s2-30            s2-31           
 s2-32            s2-33            s2-34            s2-35           
 s3-0             s3-1             s3-2             s3-3            
 s3-4             s3-5             s3-6             s3-7            
 s3-8             s3-9             s3-10            s3-11           
 s3-12            s3-13            s3-14            s3-15           
 s3-16            s3-17            s3-18            s3-19           
 s3-20            s3-21            s3-22            s3-23           
 s3-24            s3-25            s3-26            s3-27           
 s3-28            s3-29            s3-30            s3-31           
 s3-32            s3-33            s3-34            s3-35           
 temper           alter#          
    0.9789           0.9837           0.9801         3.124e-02      
  3.606e-02          0.9775           0.9782         3.094e-02      
  3.073e-02          0.9809           0.9797         3.134e-02      
    0.9782           0.9804           0.9803           0.9803       
  3.109e-02        2.992e-02        2.992e-02        2.992e-02      
  2.992e-02        2.992e-02        2.992e-02        2.992e-02      
  2.992e-02        2.992e-02        2.992e-02        2.992e-02      
  2.992e-02        2.992e-02        2.992e-02        2.992e-02      
  2.992e-02        2.992e-02        2.979e-02        4.835e-03      
  2.948e-02        2.982e-02          0.9811         3.097e-02      
  3.095e-02          0.9774           0.9782           0.9804       
  3.123e-02        3.606e-02        3.629e-02        3.630e-02      
  3.630e-02          0.9775           0.9782         3.094e-02      
  3.081e-02          0.9840         2.998e-02        2.992e-02      
  2.992e-02        2.992e-02        2.992e-02        2.992e-02      
  2.992e-02        2.992e-02        2.992e-02        2.992e-02      
  2.992e-02        2.992e-02        2.992e-02        2.992e-02      
  2.992e-02        2.992e-02        2.808e-02        4.834e-03      
  2.948e-02        2.992e-02        3.283e-02          0.9782       
    0.9804         3.098e-02        3.073e-02          0.9809       
  3.132e-02          0.9774         3.602e-02          0.9782       
  3.115e-02          0.9774         3.290e-02        3.301e-02      
    0.9779         2.999e-02        2.992e-02        2.992e-02      
  2.992e-02        2.992e-02        2.992e-02        2.992e-02      
  2.992e-02        2.992e-02        2.992e-02        2.992e-02      
  2.992e-02        2.992e-02        2.992e-02        2.992e-02      
  2.992e-02        2.992e-02        2.979e-02        4.835e-03      
  2.948e-02          0.9842           0.9805           0.9801       
    0.9797           0.9797         3.112e-02        3.073e-02      
    0.9809         3.132e-02          0.9782         3.116e-02      
    0.9774         3.290e-02        3.301e-02          0.9782       
    0.9803         3.000e-02        2.992e-02        2.992e-02      
  2.992e-02        2.992e-02        2.992e-02        2.992e-02      
  2.992e-02        2.992e-02        2.992e-02        2.992e-02      
  2.992e-02        2.992e-02        2.992e-02        2.992e-02      
  2.992e-02        2.992e-02        2.979e-02        4.835e-03      
   25.0000        1               
